#======================================================================

# CRYSTAL DATA

#----------------------------------------------------------------------

data_VESTA_phase_1


_chemical_name_common                  ''
_cell_length_a                         21.1337(11)
_cell_length_b                         26.6440(13)
_cell_length_c                         4.01415(18)
_cell_angle_alpha                      90
_cell_angle_beta                       90
_cell_angle_gamma                      90
_space_group_name_H-M_alt              'P b a 2'
_space_group_IT_number                 32

loop_
_space_group_symop_operation_xyz
   'x, y, z'
   '-x, -y, z'
   'x+1/2, -y+1/2, z'
   '-x+1/2, y+1/2, z'

loop_
   _atom_site_label
   _atom_site_occupancy
   _atom_site_fract_x
   _atom_site_fract_y
   _atom_site_fract_z
   _atom_site_adp_type
   _atom_site_U_iso_or_equiv
   _atom_site_type_symbol
   Mo1        0.7400  0.000000      0.000000      0.500000     Uiso  0.029400 Mo
   V1         0.2600  0.000000      0.000000      0.500000     Uiso  0.029400 V
   V2         0.6200  0.000000      0.500000      0.644(13)    Uiso  0.029400 V
   V3         0.4200  0.1151(9)     0.2298(7)     0.474(9)     Uiso  0.029400 V
   Mo4        1.0     0.1769(7)     0.4768(5)     0.548(9)     Uiso  0.029400 Mo
   Mo5        1.0     0.2107(7)     0.3422(5)     0.669(9)     Uiso  0.029400 Mo
   Mo6        1.0     0.2773(7)     0.2095(5)     0.641(9)     Uiso  0.029400 Mo
   Mo7        0.6800  0.3809(8)     0.1015(7)     0.508(8)     Uiso  0.029400 Mo
   V7         0.3200  0.3809(8)     0.1015(7)     0.508(8)     Uiso  0.029400 V
   Mo8        1.0     0.4608(7)     0.2258(7)     0.654(9)     Uiso  0.029400 Mo
   Nb1        1.0     0.3601(7)     0.3194(5)     0.510(8)     Uiso  0.029400 Nb
   Mo9        1.0    -0.0018(8)     0.1341(5)     0.672(8)     Uiso  0.029400 Mo
   Mo10       1.0     0.3450(7)     0.4375(5)     0.658(8)     Uiso  0.029400 Mo
   Te1        0.7400  0.5485(8)     0.1030(5)     0.565(10)    Uiso  0.032000 Te
   Te2        0.2000  0.672(4)      0.416(3)      0.416(17)    Uiso  0.032000 Te
   O1         1.0     0.000000      0.000000      0.060(12)    Uiso  0.000700 O
   O2         1.0     0.000000      0.500000      0.069(12)    Uiso  0.000700 O
   O3         1.0     0.1187(8)     0.2284(7)     0.074(10)    Uiso  0.000700 O
   O4         1.0     0.1812(7)     0.4772(7)     0.092(10)    Uiso  0.000700 O
   O5         1.0     0.2155(7)     0.3397(7)     0.077(11)    Uiso  0.000700 O
   O6         1.0     0.2824(9)     0.2175(7)     0.131(9)     Uiso  0.000700 O
   O7         1.0     0.3893(9)     0.1048(7)     0.092(10)    Uiso  0.000700 O
   O8         1.0     0.4507(8)     0.2283(8)     0.065(10)    Uiso  0.000700 O
   O9         1.0     0.3504(8)     0.3184(7)     0.055(10)    Uiso  0.000700 O
   O10        1.0     0.0073(9)     0.1416(7)     0.098(10)    Uiso  0.000700 O
   O11        1.0     0.3452(9)     0.4395(7)     0.109(10)    Uiso  0.000700 O
   O12        0.7400  0.5413(10)    0.1186(9)     0.034(10)    Uiso  0.000700 O
   O13        1.0     0.5130(8)     0.4276(7)     0.556(10)    Uiso  0.000700 O
   O14        1.0     0.5732(8)     0.3339(7)     0.591(10)    Uiso  0.000700 O
   O15        1.0     0.0387(8)     0.2687(7)     0.625(9)     Uiso  0.000700 O
   O16        1.0     0.5793(9)     0.0314(7)     0.573(10)    Uiso  0.000700 O
   O17        1.0     0.6962(8)     0.2970(7)     0.592(11)    Uiso  0.000700 O
   O18        1.0     0.7792(9)     0.2122(7)     0.576(11)    Uiso  0.000700 O
   O19        1.0     0.6655(9)     0.0956(7)     0.554(11)    Uiso  0.000700 O
   O20        1.0     0.9601(9)     0.4290(7)     0.577(11)    Uiso  0.000700 O
   O21        1.0     0.8116(8)     0.3561(7)     0.535(10)    Uiso  0.000700 O
   O22        1.0     0.7965(9)     0.1250(7)     0.579(11)    Uiso  0.000700 O
   O23        1.0     0.7655(8)     0.0254(7)     0.585(11)    Uiso  0.000700 O
   O24        1.0     0.8664(8)     0.2553(7)     0.579(11)    Uiso  0.000700 O
   O25        1.0     0.9045(8)     0.1180(7)     0.581(10)    Uiso  0.000700 O
   O26        1.0     0.9066(9)     0.0132(7)     0.510(9)     Uiso  0.000700 O
   O27        1.0     0.8372(8)     0.4536(7)     0.649(8)     Uiso  0.000700 O
   O28        1.0     0.9401(8)     0.3419(7)     0.584(11)    Uiso  0.000700 O
   O29        1.0     0.9517(8)     0.1995(7)     0.563(10)    Uiso  0.000700 O
   O30        1.0     0.1532(9)     0.3040(7)     0.605(10)    Uiso  0.000700 O
   O31        0.2000  0.682(5)      0.433(4)     -0.05(3)      Uiso  0.000700 O
